Version 4
SHEET 1 880 680
WIRE -112 224 -112 176
WIRE 16 224 16 176
WIRE 144 224 144 176
WIRE -112 496 -112 304
WIRE 16 496 16 304
WIRE 16 496 -112 496
WIRE 144 496 144 304
WIRE 144 496 16 496
WIRE 16 528 16 496
FLAG 16 528 0
FLAG -112 176 a
IOPIN -112 176 In
FLAG 16 176 b
IOPIN 16 176 In
FLAG 144 176 Vdd
IOPIN 144 176 BiDir
FLAG 320 240 a
IOPIN 320 240 In
FLAG 320 272 b
IOPIN 320 272 In
FLAG 384 208 Vdd
IOPIN 384 208 In
FLAG 384 304 0
FLAG 464 256 y
IOPIN 464 256 Out
SYMBOL voltage -112 208 R0
WINDOW 3 -55 -79 VRight 2
SYMATTR Value PULSE(0 5 1n 1n 1n 10n 20n)
SYMATTR InstName V1
SYMBOL voltage 16 208 R0
WINDOW 3 -56 -67 VRight 2
SYMATTR Value PULSE(0 5 1n 1n 1n 5n 10n)
SYMATTR InstName V2
SYMBOL voltage 144 208 R0
SYMATTR InstName V3
SYMATTR Value 5
SYMBOL norsymb 384 256 R0
SYMATTR InstName X1
TEXT 304 408 Left 2 !.tran 100n
